<?xml version="1.0" encoding="UTF-8"?>

<!-- generated on 2023-03-26 19:25:29 by Eclipse SUMO netedit Version 1.16.0
<configuration xmlns:xsi="http://www.w3.org/2001/XMLSchema-instance" xsi:noNamespaceSchemaLocation="http://sumo.dlr.de/xsd/netconvertConfiguration.xsd">

    <input>
        <sumo-net-file value="C:\Users\mahee\Capstone\tools\2023-03-22-15-56-05\lankershim_attempt1.net.xml"/>
    </input>

    <output>
        <output-file value="C:\Users\mahee\Capstone\tools\2023-03-22-15-56-05\lankershim_attempt1.net.xml"/>
        <output.street-names value="true"/>
    </output>

    <processing>
        <geometry.min-radius.fix.railways value="false"/>
        <geometry.max-grade.fix value="false"/>
        <offset.disable-normalization value="true"/>
        <lefthand value="0"/>
    </processing>

    <junctions>
        <no-turnarounds value="true"/>
        <junctions.corner-detail value="5"/>
        <junctions.limit-turn-speed value="5.50"/>
        <rectangular-lane-cut value="0"/>
    </junctions>

    <pedestrian>
        <walkingareas value="0"/>
    </pedestrian>

</configuration>
-->

<net version="1.16" junctionCornerDetail="5" limitTurnSpeed="5.50" xmlns:xsi="http://www.w3.org/2001/XMLSchema-instance" xsi:noNamespaceSchemaLocation="http://sumo.dlr.de/xsd/net_file.xsd">

    <location netOffset="-373913.75,-3777826.51" convBoundary="340.55,326.77,832.92,947.44" origBoundary="-118.367595,34.133846,-118.355565,34.143441" projParameter="+proj=utm +zone=11 +ellps=WGS84 +datum=WGS84 +units=m +no_defs"/>

    <type id="highway.bridleway" priority="1" numLanes="1" speed="2.78" allow="pedestrian" oneway="1" width="2.00"/>
    <type id="highway.bus_guideway" priority="1" numLanes="1" speed="27.78" allow="bus" oneway="1"/>
    <type id="highway.cycleway" priority="1" numLanes="1" speed="5.56" allow="bicycle" oneway="0" width="1.00"/>
    <type id="highway.footway" priority="1" numLanes="1" speed="2.78" allow="pedestrian" oneway="1" width="2.00"/>
    <type id="highway.ford" priority="1" numLanes="1" speed="2.78" allow="army" oneway="0"/>
    <type id="highway.living_street" priority="2" numLanes="1" speed="2.78" disallow="tram rail_urban rail rail_electric rail_fast ship" oneway="0"/>
    <type id="highway.motorway" priority="14" numLanes="2" speed="39.44" allow="private emergency authority army vip passenger hov taxi bus coach delivery truck trailer motorcycle evehicle custom1 custom2" oneway="1"/>
    <type id="highway.motorway_link" priority="9" numLanes="1" speed="22.22" allow="private emergency authority army vip passenger hov taxi bus coach delivery truck trailer motorcycle evehicle custom1 custom2" oneway="1"/>
    <type id="highway.path" priority="1" numLanes="1" speed="5.56" allow="pedestrian bicycle" oneway="0" width="2.00"/>
    <type id="highway.pedestrian" priority="1" numLanes="1" speed="2.78" allow="pedestrian" oneway="1" width="2.00"/>
    <type id="highway.primary" priority="12" numLanes="2" speed="27.78" disallow="tram rail_urban rail rail_electric rail_fast ship" oneway="0"/>
    <type id="highway.primary_link" priority="7" numLanes="1" speed="22.22" disallow="tram rail_urban rail rail_electric rail_fast ship" oneway="0"/>
    <type id="highway.raceway" priority="15" numLanes="2" speed="83.33" allow="vip" oneway="0"/>
    <type id="highway.residential" priority="3" numLanes="1" speed="13.89" disallow="tram rail_urban rail rail_electric rail_fast ship" oneway="0"/>
    <type id="highway.secondary" priority="11" numLanes="1" speed="27.78" disallow="tram rail_urban rail rail_electric rail_fast ship" oneway="0"/>
    <type id="highway.secondary_link" priority="6" numLanes="1" speed="22.22" disallow="tram rail_urban rail rail_electric rail_fast ship" oneway="0"/>
    <type id="highway.service" priority="1" numLanes="1" speed="5.56" allow="pedestrian delivery bicycle" oneway="0"/>
    <type id="highway.stairs" priority="1" numLanes="1" speed="1.39" allow="pedestrian" oneway="1" width="2.00"/>
    <type id="highway.step" priority="1" numLanes="1" speed="1.39" allow="pedestrian" oneway="1" width="2.00"/>
    <type id="highway.steps" priority="1" numLanes="1" speed="1.39" allow="pedestrian" oneway="1" width="2.00"/>
    <type id="highway.tertiary" priority="10" numLanes="1" speed="22.22" disallow="tram rail_urban rail rail_electric rail_fast ship" oneway="0"/>
    <type id="highway.tertiary_link" priority="5" numLanes="1" speed="22.22" disallow="tram rail_urban rail rail_electric rail_fast ship" oneway="0"/>
    <type id="highway.track" priority="1" numLanes="1" speed="5.56" allow="pedestrian motorcycle moped bicycle" oneway="0"/>
    <type id="highway.trunk" priority="13" numLanes="2" speed="27.78" disallow="pedestrian bicycle tram rail_urban rail rail_electric rail_fast ship" oneway="0"/>
    <type id="highway.trunk_link" priority="8" numLanes="1" speed="22.22" disallow="pedestrian bicycle tram rail_urban rail rail_electric rail_fast ship" oneway="0"/>
    <type id="highway.unclassified" priority="4" numLanes="1" speed="13.89" disallow="tram rail_urban rail rail_electric rail_fast ship" oneway="0"/>
    <type id="highway.unsurfaced" priority="1" numLanes="1" speed="8.33" disallow="tram rail_urban rail rail_electric rail_fast ship" oneway="0"/>
    <type id="railway.highspeed" priority="21" numLanes="1" speed="69.44" allow="rail_fast" oneway="1"/>
    <type id="railway.light_rail" priority="19" numLanes="1" speed="27.78" allow="rail_urban" oneway="1"/>
    <type id="railway.preserved" priority="16" numLanes="1" speed="27.78" allow="rail" oneway="1"/>
    <type id="railway.rail" priority="20" numLanes="1" speed="44.44" allow="rail" oneway="1"/>
    <type id="railway.subway" priority="18" numLanes="1" speed="27.78" allow="rail_urban" oneway="1"/>
    <type id="railway.tram" priority="17" numLanes="1" speed="13.89" allow="tram" oneway="1"/>

    <edge id=":18208090_0" function="internal">
        <lane id=":18208090_0_0" index="0" disallow="tram rail_urban rail rail_electric rail_fast ship" speed="6.89" length="10.09" shape="392.03,388.78 390.05,386.77 387.94,385.83 385.68,385.98 383.28,387.20"/>
    </edge>
    <edge id=":18208090_1" function="internal">
        <lane id=":18208090_1_0" index="0" disallow="tram rail_urban rail rail_electric rail_fast ship" speed="20.84" length="21.73" shape="392.03,388.78 378.76,371.65"/>
        <lane id=":18208090_1_1" index="1" disallow="tram rail_urban rail rail_electric rail_fast ship" speed="20.84" length="21.73" shape="394.59,386.87 381.25,369.64"/>
    </edge>
    <edge id=":18208090_3" function="internal">
        <lane id=":18208090_3_0" index="0" disallow="tram rail_urban rail rail_electric rail_fast ship" speed="9.11" length="4.41" shape="394.59,386.87 392.49,382.99"/>
    </edge>
    <edge id=":18208090_4" function="internal">
        <lane id=":18208090_4_0" index="0" disallow="tram rail_urban rail rail_electric rail_fast ship" speed="3.65" length="1.44" shape="394.59,386.87 394.52,385.43"/>
    </edge>
    <edge id=":18208090_17" function="internal">
        <lane id=":18208090_17_0" index="0" disallow="tram rail_urban rail rail_electric rail_fast ship" speed="9.11" length="15.72" shape="392.49,382.99 391.92,381.95 391.59,377.49 393.60,373.50 397.94,369.96"/>
    </edge>
    <edge id=":18208090_18" function="internal">
        <lane id=":18208090_18_0" index="0" disallow="tram rail_urban rail rail_electric rail_fast ship" speed="3.65" length="3.23" shape="394.52,385.43 394.92,384.63 395.80,384.47 397.16,384.96"/>
    </edge>
    <edge id=":18208090_5" function="internal">
        <lane id=":18208090_5_0" index="0" disallow="tram rail_urban rail rail_electric rail_fast ship" speed="6.30" length="9.04" shape="401.23,375.45 399.28,377.04 398.38,378.83 398.53,380.84 399.73,383.05"/>
    </edge>
    <edge id=":18208090_6" function="internal">
        <lane id=":18208090_6_0" index="0" speed="13.89" length="21.58" shape="401.23,375.45 383.28,387.20"/>
        <lane id=":18208090_6_1" index="1" speed="13.89" length="21.58" shape="399.58,372.71 381.42,384.60"/>
    </edge>
    <edge id=":18208090_8" function="internal">
        <lane id=":18208090_8_0" index="0" speed="10.06" length="4.10" shape="399.58,372.71 395.82,374.32"/>
    </edge>
    <edge id=":18208090_19" function="internal">
        <lane id=":18208090_19_0" index="0" speed="10.06" length="16.51" shape="395.82,374.32 394.43,374.92 389.65,375.15 385.26,373.39 381.25,369.64"/>
    </edge>
    <edge id=":18208090_9" function="internal">
        <lane id=":18208090_9_0" index="0" speed="7.58" length="11.29" shape="386.23,365.62 388.42,367.65 390.82,368.59 393.45,368.45 396.29,367.22"/>
    </edge>
    <edge id=":18208090_10" function="internal">
        <lane id=":18208090_10_0" index="0" disallow="tram rail_urban rail rail_electric rail_fast ship" speed="20.84" length="21.97" shape="386.23,365.62 399.73,383.05"/>
        <lane id=":18208090_10_1" index="1" disallow="tram rail_urban rail rail_electric rail_fast ship" speed="20.84" length="21.97" shape="383.74,367.63 397.16,384.96"/>
    </edge>
    <edge id=":18208090_12" function="internal">
        <lane id=":18208090_12_0" index="0" speed="9.17" length="5.47" shape="383.74,367.63 386.53,372.33"/>
    </edge>
    <edge id=":18208090_20" function="internal">
        <lane id=":18208090_20_0" index="0" speed="9.17" length="14.33" shape="386.53,372.33 387.07,376.73 385.37,380.82 381.42,384.60"/>
    </edge>
    <edge id=":18208090_13" function="internal">
        <lane id=":18208090_13_0" index="0" speed="6.38" length="9.04" shape="377.70,379.39 379.50,377.67 380.28,375.80 380.03,373.79 378.76,371.65"/>
    </edge>
    <edge id=":18208090_14" function="internal">
        <lane id=":18208090_14_0" index="0" speed="13.89" length="22.10" shape="377.70,379.39 396.29,367.22"/>
        <lane id=":18208090_14_1" index="1" speed="13.89" length="22.10" shape="379.56,382.00 397.94,369.96"/>
    </edge>
    <edge id=":18208090_16" function="internal">
        <lane id=":18208090_16_0" index="0" disallow="tram rail_urban rail rail_electric rail_fast ship" speed="9.53" length="5.61" shape="379.56,382.00 384.43,379.49 384.56,379.48"/>
    </edge>
    <edge id=":18208090_21" function="internal">
        <lane id=":18208090_21_0" index="0" disallow="tram rail_urban rail rail_electric rail_fast ship" speed="9.53" length="14.66" shape="384.56,379.48 388.98,379.15 393.23,380.97 397.16,384.96"/>
    </edge>
    <edge id=":2200742494_0" function="internal">
        <lane id=":2200742494_0_0" index="0" disallow="tram rail_urban rail rail_electric rail_fast ship" speed="6.33" length="13.85" shape="597.74,760.17 592.73,760.65 590.22,761.96 590.22,764.08 592.72,767.03"/>
    </edge>
    <edge id=":2200742494_1" function="internal">
        <lane id=":2200742494_1_0" index="0" disallow="tram rail_urban rail rail_electric rail_fast ship" speed="13.89" length="33.73" shape="597.74,760.17 589.81,761.20 581.39,763.58 573.06,766.50 565.38,769.14"/>
        <lane id=":2200742494_1_1" index="1" disallow="tram rail_urban rail rail_electric rail_fast ship" speed="13.89" length="33.73" shape="596.84,756.98 588.90,758.03 580.46,760.46 572.12,763.42 564.43,766.08"/>
    </edge>
    <edge id=":2200742494_3" function="internal">
        <lane id=":2200742494_3_0" index="0" disallow="tram rail_urban rail rail_electric rail_fast ship" speed="13.25" length="3.54" shape="596.84,756.98 593.29,756.86"/>
    </edge>
    <edge id=":2200742494_4" function="internal">
        <lane id=":2200742494_4_0" index="0" disallow="tram rail_urban rail rail_electric rail_fast ship" speed="3.72" length="1.47" shape="596.84,756.98 595.44,756.52"/>
    </edge>
    <edge id=":2200742494_22" function="internal">
        <lane id=":2200742494_22_0" index="0" disallow="tram rail_urban rail rail_electric rail_fast ship" speed="13.25" length="23.78" shape="593.29,756.86 586.95,756.65 579.42,755.42 574.23,753.27 571.38,750.21"/>
    </edge>
    <edge id=":2200742494_23" function="internal">
        <lane id=":2200742494_23_0" index="0" disallow="tram rail_urban rail rail_electric rail_fast ship" speed="3.72" length="3.29" shape="595.44,756.52 594.83,755.85 595.00,754.96 595.95,753.84"/>
    </edge>
    <edge id=":2200742494_5" function="internal">
        <lane id=":2200742494_5_0" index="0" disallow="tram rail_urban rail rail_electric rail_fast ship" speed="8.68" length="12.61" shape="585.84,743.35 587.84,746.80 590.04,749.18 592.45,750.49 595.07,750.72"/>
    </edge>
    <edge id=":2200742494_6" function="internal">
        <lane id=":2200742494_6_0" index="0" disallow="tram rail_urban rail rail_electric rail_fast ship" speed="27.78" length="26.74" shape="585.84,743.35 587.85,750.59 587.81,756.28 588.51,761.43 592.72,767.03"/>
        <lane id=":2200742494_6_1" index="1" disallow="tram rail_urban rail rail_electric rail_fast ship" speed="27.78" length="26.74" shape="582.95,744.72 585.75,751.83 586.90,756.99 587.98,762.18 590.55,769.39"/>
        <lane id=":2200742494_6_2" index="2" disallow="tram rail_urban rail rail_electric rail_fast ship" speed="27.78" length="26.74" shape="580.06,746.09 583.02,753.55 584.29,758.95 585.47,764.39 588.19,771.96"/>
        <lane id=":2200742494_6_3" index="3" disallow="tram rail_urban rail rail_electric rail_fast ship" speed="27.78" length="26.74" shape="577.17,747.47 580.30,755.28 581.67,760.93 582.95,766.61 585.82,774.54"/>
    </edge>
    <edge id=":2200742494_10" function="internal">
        <lane id=":2200742494_10_0" index="0" disallow="tram rail_urban rail rail_electric rail_fast ship" speed="9.65" length="3.90" shape="574.27,748.84 575.32,752.59"/>
    </edge>
    <edge id=":2200742494_11" function="internal">
        <lane id=":2200742494_11_0" index="0" disallow="tram rail_urban rail rail_electric rail_fast ship" speed="3.65" length="1.44" shape="574.27,748.84 574.07,750.26"/>
    </edge>
    <edge id=":2200742494_24" function="internal">
        <lane id=":2200742494_24_0" index="0" disallow="tram rail_urban rail rail_electric rail_fast ship" speed="9.65" length="19.47" shape="575.32,752.59 575.86,754.55 574.74,759.32 570.94,763.17 564.43,766.08"/>
    </edge>
    <edge id=":2200742494_25" function="internal">
        <lane id=":2200742494_25_0" index="0" disallow="tram rail_urban rail rail_electric rail_fast ship" speed="3.65" length="3.23" shape="574.07,750.26 573.52,750.97 572.62,750.95 571.38,750.21"/>
    </edge>
    <edge id=":2200742494_12" function="internal">
        <lane id=":2200742494_12_0" index="0" disallow="tram rail_urban rail rail_electric rail_fast ship" speed="6.22" length="9.05" shape="562.53,759.97 564.81,758.88 566.09,757.35 566.35,755.37 565.60,752.95"/>
    </edge>
    <edge id=":2200742494_13" function="internal">
        <lane id=":2200742494_13_0" index="0" disallow="tram rail_urban rail rail_electric rail_fast ship" speed="13.89" length="33.84" shape="562.53,759.97 570.24,757.43 578.65,754.64 587.14,752.21 595.07,750.72"/>
        <lane id=":2200742494_13_1" index="1" disallow="tram rail_urban rail rail_electric rail_fast ship" speed="13.89" length="33.84" shape="563.48,763.02 571.18,760.49 579.57,757.73 588.03,755.33 595.95,753.84"/>
    </edge>
    <edge id=":2200742494_15" function="internal">
        <lane id=":2200742494_15_0" index="0" disallow="tram rail_urban rail rail_electric rail_fast ship" speed="11.75" length="4.83" shape="563.48,763.02 568.23,762.13"/>
    </edge>
    <edge id=":2200742494_26" function="internal">
        <lane id=":2200742494_26_0" index="0" disallow="tram rail_urban rail rail_electric rail_fast ship" speed="11.75" length="24.43" shape="568.23,762.13 571.92,761.44 578.85,762.40 584.27,765.90 588.19,771.96"/>
    </edge>
    <edge id=":2200742494_16" function="internal">
        <lane id=":2200742494_16_0" index="0" disallow="tram rail_urban rail rail_electric rail_fast ship" speed="5.97" length="9.20" shape="571.39,773.44 571.03,770.85 569.91,769.27 568.03,768.70 565.38,769.14"/>
    </edge>
    <edge id=":2200742494_17" function="internal">
        <lane id=":2200742494_17_0" index="0" disallow="tram rail_urban rail rail_electric rail_fast ship" speed="25.15" length="23.07" shape="571.39,773.44 571.17,767.10 570.24,762.81 568.44,758.71 565.60,752.95"/>
        <lane id=":2200742494_17_1" index="1" disallow="tram rail_urban rail rail_electric rail_fast ship" speed="25.97" length="23.07" shape="574.59,773.45 574.36,766.69 573.40,762.11 571.51,757.73 568.49,751.58"/>
        <lane id=":2200742494_17_2" index="2" disallow="tram rail_urban rail rail_electric rail_fast ship" speed="26.76" length="23.07" shape="577.79,773.47 577.56,766.28 576.56,761.40 574.58,756.75 571.38,750.21"/>
    </edge>
    <edge id=":2200742494_20" function="internal">
        <lane id=":2200742494_20_0" index="0" disallow="tram rail_urban rail rail_electric rail_fast ship" speed="11.45" length="3.93" shape="580.99,773.49 581.48,769.59"/>
    </edge>
    <edge id=":2200742494_21" function="internal">
        <lane id=":2200742494_21_0" index="0" disallow="tram rail_urban rail rail_electric rail_fast ship" speed="2.84" length="0.46" shape="584.21,773.51 584.60,773.76"/>
    </edge>
    <edge id=":2200742494_27" function="internal">
        <lane id=":2200742494_27_0" index="0" disallow="tram rail_urban rail rail_electric rail_fast ship" speed="11.45" length="23.50" shape="581.48,769.59 581.98,765.51 584.81,759.58 589.46,755.69 595.95,753.84"/>
    </edge>
    <edge id=":2200742494_28" function="internal">
        <lane id=":2200742494_28_0" index="0" disallow="tram rail_urban rail rail_electric rail_fast ship" speed="2.84" length="1.46" shape="584.60,773.76 585.82,774.54"/>
    </edge>
    <edge id=":2302151437_0" function="internal">
        <lane id=":2302151437_0_0" index="0" disallow="tram rail_urban rail rail_electric rail_fast ship" speed="3.65" length="4.67" shape="666.02,900.02 667.23,900.81 667.64,901.60 667.25,902.41 666.06,903.22"/>
    </edge>
    <edge id=":2358086434_0" function="internal">
        <lane id=":2358086434_0_0" index="0" disallow="tram rail_urban rail rail_electric rail_fast ship" speed="3.65" length="4.67" shape="596.43,947.91 595.31,948.82 594.43,948.97 593.78,948.35 593.37,946.97"/>
    </edge>
    <edge id=":2358086440_0" function="internal">
        <lane id=":2358086440_0_0" index="0" disallow="tram rail_urban rail rail_electric rail_fast ship" speed="27.78" length="8.11" shape="594.93,853.64 594.64,851.35 594.05,849.83 593.43,848.31 593.06,846.02"/>
        <lane id=":2358086440_0_1" index="1" disallow="tram rail_urban rail rail_electric rail_fast ship" speed="27.78" length="8.11" shape="594.93,853.64 595.14,851.31 595.65,849.74 596.13,848.17 596.25,845.84"/>
        <lane id=":2358086440_0_2" index="2" disallow="tram rail_urban rail rail_electric rail_fast ship" speed="27.78" length="8.11" shape="598.13,853.59 598.34,851.22 598.85,849.62 599.33,848.03 599.45,845.66"/>
        <lane id=":2358086440_0_3" index="3" disallow="tram rail_urban rail rail_electric rail_fast ship" speed="27.78" length="8.11" shape="601.33,853.54 601.54,851.13 602.05,849.51 602.52,847.88 602.64,845.48"/>
        <lane id=":2358086440_0_4" index="4" disallow="tram rail_urban rail rail_electric rail_fast ship" speed="27.78" length="8.11" shape="604.53,853.49 604.74,851.04 605.25,849.39 605.72,847.74 605.83,845.30"/>
    </edge>
    <edge id=":2358086443_0" function="internal">
        <lane id=":2358086443_0_0" index="0" disallow="tram rail_urban rail rail_electric rail_fast ship" speed="27.78" length="8.31" shape="539.93,698.09 538.55,696.19 536.97,695.36 535.35,694.55 533.87,692.69"/>
        <lane id=":2358086443_0_1" index="1" disallow="tram rail_urban rail rail_electric rail_fast ship" speed="27.78" length="8.31" shape="542.86,696.80 541.46,694.86 539.86,694.00 538.23,693.16 536.73,691.26"/>
        <lane id=":2358086443_0_2" index="2" disallow="tram rail_urban rail rail_electric rail_fast ship" speed="27.78" length="8.31" shape="545.79,695.51 544.37,693.53 542.76,692.64 541.12,691.77 539.59,689.84"/>
        <lane id=":2358086443_0_3" index="3" disallow="tram rail_urban rail rail_electric rail_fast ship" speed="27.78" length="8.31" shape="545.79,695.51 542.46,688.41"/>
    </edge>
    <edge id=":2358086443_4" function="internal">
        <lane id=":2358086443_4_0" index="0" disallow="tram rail_urban rail rail_electric rail_fast ship" speed="27.78" length="8.15" shape="551.05,684.12 554.58,691.64"/>
        <lane id=":2358086443_4_1" index="1" disallow="tram rail_urban rail rail_electric rail_fast ship" speed="27.78" length="8.15" shape="548.18,685.55 551.65,692.93"/>
        <lane id=":2358086443_4_2" index="2" disallow="tram rail_urban rail rail_electric rail_fast ship" speed="27.78" length="8.15" shape="545.32,686.98 548.72,694.22"/>
    </edge>
    <edge id=":2358091642_0" function="internal">
        <lane id=":2358091642_0_0" index="0" disallow="tram rail_urban rail rail_electric rail_fast ship" speed="27.78" length="8.66" shape="417.23,441.79 416.64,439.40 416.97,437.57 417.28,435.75 416.63,433.39"/>
        <lane id=":2358091642_0_1" index="1" disallow="tram rail_urban rail rail_electric rail_fast ship" speed="27.78" length="8.66" shape="420.12,440.41 419.52,438.00 419.84,436.15 420.14,434.31 419.47,431.93"/>
    </edge>
    <edge id=":2358091642_2" function="internal">
        <lane id=":2358091642_2_0" index="0" disallow="tram rail_urban rail rail_electric rail_fast ship" speed="3.65" length="1.44" shape="423.00,439.03 423.21,437.60"/>
    </edge>
    <edge id=":2358091642_6" function="internal">
        <lane id=":2358091642_6_0" index="0" disallow="tram rail_urban rail rail_electric rail_fast ship" speed="3.65" length="3.23" shape="423.21,437.60 423.76,436.90 424.65,436.91 425.89,437.65"/>
    </edge>
    <edge id=":2358091642_3" function="internal">
        <lane id=":2358091642_3_0" index="0" disallow="tram rail_urban rail rail_electric rail_fast ship" speed="27.78" length="8.07" shape="425.16,428.99 428.78,436.27"/>
        <lane id=":2358091642_3_1" index="1" disallow="tram rail_urban rail rail_electric rail_fast ship" speed="27.78" length="8.07" shape="422.32,430.46 425.89,437.65"/>
    </edge>
    <edge id=":2358091642_5" function="internal">
        <lane id=":2358091642_5_0" index="0" disallow="tram rail_urban rail rail_electric rail_fast ship" speed="3.65" length="1.44" shape="422.32,430.46 422.16,431.89"/>
    </edge>
    <edge id=":2358091642_7" function="internal">
        <lane id=":2358091642_7_0" index="0" disallow="tram rail_urban rail rail_electric rail_fast ship" speed="3.65" length="3.23" shape="422.16,431.89 421.63,432.62 420.73,432.63 419.47,431.93"/>
    </edge>
    <edge id=":269388345_0" function="internal">
        <lane id=":269388345_0_0" index="0" disallow="tram rail_urban rail rail_electric rail_fast ship" speed="13.89" length="0.28" shape="564.62,911.41 564.34,911.49"/>
    </edge>
    <edge id=":269388345_1" function="internal">
        <lane id=":269388345_1_0" index="0" disallow="tram rail_urban rail rail_electric rail_fast ship" speed="3.65" length="2.34" shape="564.62,911.41 563.23,911.02 562.60,910.39"/>
    </edge>
    <edge id=":269388345_4" function="internal">
        <lane id=":269388345_4_0" index="0" disallow="tram rail_urban rail rail_electric rail_fast ship" speed="3.65" length="2.34" shape="562.60,910.39 562.72,909.50 563.61,908.37"/>
    </edge>
    <edge id=":269388345_2" function="internal">
        <lane id=":269388345_2_0" index="0" disallow="tram rail_urban rail rail_electric rail_fast ship" speed="13.89" length="0.16" shape="563.46,908.41 563.61,908.37"/>
    </edge>
    <edge id=":269388345_3" function="internal">
        <lane id=":269388345_3_0" index="0" disallow="tram rail_urban rail rail_electric rail_fast ship" speed="3.65" length="2.34" shape="563.46,908.41 564.84,908.85 565.44,909.51"/>
    </edge>
    <edge id=":269388345_5" function="internal">
        <lane id=":269388345_5_0" index="0" disallow="tram rail_urban rail rail_electric rail_fast ship" speed="3.65" length="2.34" shape="565.44,909.51 565.28,910.39 564.34,911.49"/>
    </edge>
    <edge id=":269388770_0" function="internal">
        <lane id=":269388770_0_0" index="0" disallow="tram rail_urban rail rail_electric rail_fast ship" speed="27.78" length="7.99" shape="583.72,799.75 582.71,797.79 581.66,796.64 580.56,795.51 579.41,793.60"/>
        <lane id=":269388770_0_1" index="1" disallow="tram rail_urban rail rail_electric rail_fast ship" speed="27.78" length="7.99" shape="586.72,798.62 585.68,796.59 584.61,795.40 583.49,794.23 582.31,792.26"/>
        <lane id=":269388770_0_2" index="2" disallow="tram rail_urban rail rail_electric rail_fast ship" speed="27.78" length="7.99" shape="589.71,797.49 588.65,795.40 587.56,794.16 586.42,792.94 585.21,790.92"/>
        <lane id=":269388770_0_3" index="3" disallow="tram rail_urban rail rail_electric rail_fast ship" speed="27.78" length="7.99" shape="592.70,796.35 591.61,794.20 590.51,792.92 589.35,791.66 588.12,789.57"/>
        <lane id=":269388770_0_4" index="4" disallow="tram rail_urban rail rail_electric rail_fast ship" speed="27.78" length="7.99" shape="592.70,796.35 592.06,793.98 591.96,792.25 591.81,790.54 591.02,788.23"/>
    </edge>
    <edge id=":269390046_0" function="internal">
        <lane id=":269390046_0_0" index="0" disallow="tram rail_urban rail rail_electric rail_fast ship" speed="27.78" length="14.82" shape="441.37,492.40 435.06,479.04"/>
        <lane id=":269390046_0_1" index="1" disallow="tram rail_urban rail rail_electric rail_fast ship" speed="27.78" length="14.82" shape="444.27,491.06 437.95,477.66"/>
        <lane id=":269390046_0_2" index="2" disallow="tram rail_urban rail rail_electric rail_fast ship" speed="27.78" length="14.82" shape="447.18,489.71 440.83,476.28"/>
    </edge>
    <edge id=":269390046_3" function="internal">
        <lane id=":269390046_3_0" index="0" allow="private emergency authority army vip passenger hov taxi bus coach delivery truck trailer motorcycle evehicle custom1 custom2" speed="7.27" length="8.24" shape="460.31,476.79 458.95,478.58 458.24,480.44 458.19,482.36 458.80,484.35"/>
        <lane id=":269390046_3_1" index="1" allow="private emergency authority army vip passenger hov taxi bus coach delivery truck trailer motorcycle evehicle custom1 custom2" speed="8.89" length="12.71" shape="458.48,474.07 456.31,476.90 455.15,479.77 455.01,482.70 455.89,485.69"/>
        <lane id=":269390046_3_2" index="2" allow="private emergency authority army vip passenger hov taxi bus coach delivery truck trailer motorcycle evehicle custom1 custom2" speed="9.57" length="14.83" shape="458.48,474.07 455.23,477.91 453.23,481.35 452.49,484.39 452.99,487.03"/>
    </edge>
    <edge id=":269390046_6" function="internal">
        <lane id=":269390046_6_0" index="0" allow="private emergency authority army vip passenger hov taxi bus coach delivery truck trailer motorcycle evehicle custom1 custom2" speed="9.01" length="23.26" shape="456.66,471.35 451.02,476.71 445.77,480.22 441.28,480.88 437.95,477.66"/>
        <lane id=":269390046_6_1" index="1" allow="private emergency authority army vip passenger hov taxi bus coach delivery truck trailer motorcycle evehicle custom1 custom2" speed="8.30" length="19.56" shape="456.66,471.35 451.12,476.40 446.63,478.90 443.21,478.86 440.83,476.28"/>
    </edge>
    <edge id=":269390046_8" function="internal">
        <lane id=":269390046_8_0" index="0" disallow="tram rail_urban rail rail_electric rail_fast ship" speed="27.78" length="15.61" shape="446.60,473.51 449.51,477.27 452.74,478.91 455.95,480.57 458.80,484.35"/>
        <lane id=":269390046_8_1" index="1" disallow="tram rail_urban rail rail_electric rail_fast ship" speed="27.78" length="15.61" shape="446.60,473.51 449.00,477.35 451.29,479.58 453.55,481.83 455.89,485.69"/>
        <lane id=":269390046_8_2" index="2" disallow="tram rail_urban rail rail_electric rail_fast ship" speed="27.78" length="15.61" shape="443.72,474.89 446.11,478.72 448.39,480.95 450.65,483.18 452.99,487.03"/>
        <lane id=":269390046_8_3" index="3" disallow="tram rail_urban rail rail_electric rail_fast ship" speed="27.78" length="15.61" shape="443.72,474.89 450.08,488.37"/>
    </edge>
    <edge id=":269390046_12" function="internal">
        <lane id=":269390046_12_0" index="0" disallow="tram rail_urban rail rail_electric rail_fast ship" speed="3.65" length="1.44" shape="443.72,474.89 443.51,476.32"/>
    </edge>
    <edge id=":269390046_13" function="internal">
        <lane id=":269390046_13_0" index="0" disallow="tram rail_urban rail rail_electric rail_fast ship" speed="3.65" length="3.23" shape="443.51,476.32 442.97,477.03 442.07,477.01 440.83,476.28"/>
    </edge>
    <edge id=":269390069_0" function="internal">
        <lane id=":269390069_0_0" index="0" disallow="tram rail_urban rail rail_electric rail_fast ship" speed="27.78" length="8.68" shape="529.39,683.71 527.83,681.71 526.15,680.80 524.48,679.88 522.94,677.87"/>
        <lane id=":269390069_0_1" index="1" disallow="tram rail_urban rail rail_electric rail_fast ship" speed="27.78" length="8.68" shape="532.25,682.29 530.69,680.29 529.02,679.38 527.35,678.48 525.81,676.47"/>
        <lane id=":269390069_0_2" index="2" disallow="tram rail_urban rail rail_electric rail_fast ship" speed="27.78" length="8.68" shape="535.11,680.86 533.56,678.87 531.89,677.97 530.22,677.07 528.69,675.07"/>
        <lane id=":269390069_0_3" index="3" disallow="tram rail_urban rail rail_electric rail_fast ship" speed="27.78" length="8.68" shape="537.98,679.43 536.43,677.45 534.76,676.55 533.09,675.66 531.57,673.66"/>